* NGSPICE file created from SRAM_1024x32_wb_wrapper.ext - technology: sky130A

* Black-box entry subcircuit for sky130_fd_sc_hd__decap_3 abstract view
.subckt sky130_fd_sc_hd__decap_3 VGND VNB VPB VPWR
.ends

* Black-box entry subcircuit for sky130_fd_sc_hd__decap_4 abstract view
.subckt sky130_fd_sc_hd__decap_4 VGND VNB VPB VPWR
.ends

* Black-box entry subcircuit for sky130_fd_sc_hd__decap_8 abstract view
.subckt sky130_fd_sc_hd__decap_8 VGND VNB VPB VPWR
.ends

* Black-box entry subcircuit for sky130_fd_sc_hd__dlygate4sd3_1 abstract view
.subckt sky130_fd_sc_hd__dlygate4sd3_1 A VGND VNB VPB VPWR X
.ends

* Black-box entry subcircuit for sky130_ef_sc_hd__decap_12 abstract view
.subckt sky130_ef_sc_hd__decap_12 VPWR VGND VPB VNB
.ends

* Black-box entry subcircuit for sky130_fd_sc_hd__tapvpwrvgnd_1 abstract view
.subckt sky130_fd_sc_hd__tapvpwrvgnd_1 VGND VPWR
.ends

* Black-box entry subcircuit for sky130_fd_sc_hd__fill_1 abstract view
.subckt sky130_fd_sc_hd__fill_1 VGND VNB VPB VPWR
.ends

* Black-box entry subcircuit for sky130_fd_sc_hd__decap_6 abstract view
.subckt sky130_fd_sc_hd__decap_6 VGND VNB VPB VPWR
.ends

* Black-box entry subcircuit for sky130_fd_sc_hd__buf_12 abstract view
.subckt sky130_fd_sc_hd__buf_12 A VGND VNB VPB VPWR X
.ends

* Black-box entry subcircuit for sky130_fd_sc_hd__fill_2 abstract view
.subckt sky130_fd_sc_hd__fill_2 VGND VNB VPB VPWR
.ends

* Black-box entry subcircuit for EF_SRAM_1024x32 abstract view
.subckt EF_SRAM_1024x32 DO[16] BEN[16] DO[17] BEN[17] DO[18] BEN[18] DO[19] BEN[19]
+ DO[20] BEN[20] DO[21] BEN[21] DO[22] BEN[22] DO[23] BEN[23] DO[24] BEN[24] DO[25]
+ BEN[25] DO[26] BEN[26] DO[27] BEN[27] DO[28] BEN[28] DO[29] BEN[29] DO[30] BEN[30]
+ DO[31] BEN[31] AD[0] AD[1] AD[2] WLBI WLOFF CLKin EN R_WB SM TM ScanInDR ScanOutCC
+ ScanInDL DO[9] BEN[9] DO[10] BEN[10] DO[11] BEN[11] DO[12] BEN[12] DO[13] BEN[13]
+ DO[14] BEN[14] DO[15] BEN[15] BEN[8] AD[3] AD[4] AD[5] AD[6] AD[7] AD[8] AD[9] ScanInCC
+ DO[0] BEN[0] DO[1] BEN[1] DO[2] BEN[2] DO[3] BEN[3] DO[4] BEN[4] DO[5] BEN[5] DO[6]
+ BEN[6] DO[7] BEN[7] DO[8] DI[3] DI[12] DI[0] DI[4] DI[14] DI[11] DI[5] DI[1] DI[9]
+ DI[6] DI[15] DI[2] DI[7] DI[13] DI[10] DI[8] DI[23] DI[27] DI[19] DI[21] DI[28]
+ DI[24] DI[18] DI[29] DI[16] DI[25] DI[30] DI[22] DI[20] DI[26] DI[17] DI[31] vnb
+ vpwrm vpwra vpwrp vgnd vpb vpwrpc vpwrac
.ends

* Black-box entry subcircuit for sky130_fd_sc_hd__clkinv_16 abstract view
.subckt sky130_fd_sc_hd__clkinv_16 A VGND VNB VPB VPWR Y
.ends

* Black-box entry subcircuit for sky130_fd_sc_hd__clkbuf_1 abstract view
.subckt sky130_fd_sc_hd__clkbuf_1 A VGND VNB VPB VPWR X
.ends

* Black-box entry subcircuit for sky130_fd_sc_hd__buf_4 abstract view
.subckt sky130_fd_sc_hd__buf_4 A VGND VNB VPB VPWR X
.ends

* Black-box entry subcircuit for sky130_fd_sc_hd__dlymetal6s2s_1 abstract view
.subckt sky130_fd_sc_hd__dlymetal6s2s_1 A VGND VNB VPB VPWR X
.ends

* Black-box entry subcircuit for sky130_fd_sc_hd__clkbuf_4 abstract view
.subckt sky130_fd_sc_hd__clkbuf_4 A VGND VNB VPB VPWR X
.ends

* Black-box entry subcircuit for sky130_fd_sc_hd__conb_1 abstract view
.subckt sky130_fd_sc_hd__conb_1 VGND VNB VPB VPWR HI LO
.ends

* Black-box entry subcircuit for sky130_fd_sc_hd__dfrtp_1 abstract view
.subckt sky130_fd_sc_hd__dfrtp_1 CLK D RESET_B VGND VNB VPB VPWR Q
.ends

* Black-box entry subcircuit for sky130_fd_sc_hd__buf_2 abstract view
.subckt sky130_fd_sc_hd__buf_2 A VGND VNB VPB VPWR X
.ends

* Black-box entry subcircuit for sky130_fd_sc_hd__inv_2 abstract view
.subckt sky130_fd_sc_hd__inv_2 A VGND VNB VPB VPWR Y
.ends

* Black-box entry subcircuit for sky130_fd_sc_hd__clkbuf_16 abstract view
.subckt sky130_fd_sc_hd__clkbuf_16 A VGND VNB VPB VPWR X
.ends

* Black-box entry subcircuit for sky130_fd_sc_hd__and3b_1 abstract view
.subckt sky130_fd_sc_hd__and3b_1 A_N B C VGND VNB VPB VPWR X
.ends

* Black-box entry subcircuit for sky130_fd_sc_hd__and2_1 abstract view
.subckt sky130_fd_sc_hd__and2_1 A B VGND VNB VPB VPWR X
.ends

* Black-box entry subcircuit for sky130_fd_sc_hd__clkinv_4 abstract view
.subckt sky130_fd_sc_hd__clkinv_4 A VGND VNB VPB VPWR Y
.ends

* Black-box entry subcircuit for sky130_fd_sc_hd__diode_2 abstract view
.subckt sky130_fd_sc_hd__diode_2 DIODE VGND VNB VPB VPWR
.ends

.subckt SRAM_1024x32_wb_wrapper VGND VPWR wb_clk_i wb_rst_i wbs_ack_o wbs_adr_i[0]
+ wbs_adr_i[10] wbs_adr_i[11] wbs_adr_i[12] wbs_adr_i[13] wbs_adr_i[14] wbs_adr_i[15]
+ wbs_adr_i[16] wbs_adr_i[17] wbs_adr_i[18] wbs_adr_i[19] wbs_adr_i[1] wbs_adr_i[20]
+ wbs_adr_i[21] wbs_adr_i[22] wbs_adr_i[23] wbs_adr_i[24] wbs_adr_i[25] wbs_adr_i[26]
+ wbs_adr_i[27] wbs_adr_i[28] wbs_adr_i[29] wbs_adr_i[2] wbs_adr_i[30] wbs_adr_i[31]
+ wbs_adr_i[3] wbs_adr_i[4] wbs_adr_i[5] wbs_adr_i[6] wbs_adr_i[7] wbs_adr_i[8] wbs_adr_i[9]
+ wbs_cyc_i wbs_dat_i[0] wbs_dat_i[10] wbs_dat_i[11] wbs_dat_i[12] wbs_dat_i[13] wbs_dat_i[14]
+ wbs_dat_i[15] wbs_dat_i[16] wbs_dat_i[17] wbs_dat_i[18] wbs_dat_i[19] wbs_dat_i[1]
+ wbs_dat_i[20] wbs_dat_i[21] wbs_dat_i[22] wbs_dat_i[23] wbs_dat_i[24] wbs_dat_i[25]
+ wbs_dat_i[26] wbs_dat_i[27] wbs_dat_i[28] wbs_dat_i[29] wbs_dat_i[2] wbs_dat_i[30]
+ wbs_dat_i[31] wbs_dat_i[3] wbs_dat_i[4] wbs_dat_i[5] wbs_dat_i[6] wbs_dat_i[7] wbs_dat_i[8]
+ wbs_dat_i[9] wbs_dat_o[0] wbs_dat_o[10] wbs_dat_o[11] wbs_dat_o[12] wbs_dat_o[13]
+ wbs_dat_o[14] wbs_dat_o[15] wbs_dat_o[16] wbs_dat_o[17] wbs_dat_o[18] wbs_dat_o[19]
+ wbs_dat_o[1] wbs_dat_o[20] wbs_dat_o[21] wbs_dat_o[22] wbs_dat_o[23] wbs_dat_o[24]
+ wbs_dat_o[25] wbs_dat_o[26] wbs_dat_o[27] wbs_dat_o[28] wbs_dat_o[29] wbs_dat_o[2]
+ wbs_dat_o[30] wbs_dat_o[31] wbs_dat_o[3] wbs_dat_o[4] wbs_dat_o[5] wbs_dat_o[6]
+ wbs_dat_o[7] wbs_dat_o[8] wbs_dat_o[9] wbs_sel_i[0] wbs_sel_i[1] wbs_sel_i[2] wbs_sel_i[3]
+ wbs_stb_i wbs_we_i
XPHY_EDGE_ROW_95_2_Right_103 VGND VGND VPWR VPWR sky130_fd_sc_hd__decap_3
XFILLER_0_143_750 VGND VGND VPWR VPWR sky130_fd_sc_hd__decap_4
XFILLER_0_41_792 VGND VGND VPWR VPWR sky130_fd_sc_hd__decap_8
Xhold340 net278 VGND VGND VPWR VPWR net432 sky130_fd_sc_hd__dlygate4sd3_1
Xhold362 wbs_dat_i[31] VGND VGND VPWR VPWR net454 sky130_fd_sc_hd__dlygate4sd3_1
Xhold351 wbs_dat_i[23] VGND VGND VPWR VPWR net443 sky130_fd_sc_hd__dlygate4sd3_1
XFILLER_0_7_81 VPWR VGND VPWR VGND sky130_ef_sc_hd__decap_12
XTAP_TAPCELL_ROW_5_398 VGND VPWR sky130_fd_sc_hd__tapvpwrvgnd_1
XTAP_TAPCELL_ROW_132_2_649 VGND VPWR sky130_fd_sc_hd__tapvpwrvgnd_1
XTAP_TAPCELL_ROW_140_2_662 VGND VPWR sky130_fd_sc_hd__tapvpwrvgnd_1
XPHY_EDGE_ROW_127_2_Left_282 VGND VGND VPWR VPWR sky130_fd_sc_hd__decap_3
XFILLER_0_126_728 VPWR VGND VPWR VGND sky130_ef_sc_hd__decap_12
XFILLER_0_119_780 VPWR VGND VPWR VGND sky130_ef_sc_hd__decap_12
XFILLER_0_24_726 VGND VGND VPWR VPWR sky130_fd_sc_hd__fill_1
XTAP_TAPCELL_ROW_155_2_684 VGND VPWR sky130_fd_sc_hd__tapvpwrvgnd_1
XFILLER_0_99_792 VGND VGND VPWR VPWR sky130_fd_sc_hd__decap_8
XFILLER_0_3_39 VPWR VGND VPWR VGND sky130_ef_sc_hd__decap_12
XPHY_EDGE_ROW_53_2_Right_61 VGND VGND VPWR VPWR sky130_fd_sc_hd__decap_3
XFILLER_0_140_764 VPWR VGND VPWR VGND sky130_ef_sc_hd__decap_12
XFILLER_0_125_750 VGND VGND VPWR VPWR sky130_fd_sc_hd__decap_4
XFILLER_0_15_726 VPWR VGND VPWR VGND sky130_ef_sc_hd__decap_12
XFILLER_0_23_792 VGND VGND VPWR VPWR sky130_fd_sc_hd__decap_8
XFILLER_0_2_697 VGND VGND VPWR VPWR sky130_fd_sc_hd__decap_3
XPHY_EDGE_ROW_96_2_Right_104 VGND VGND VPWR VPWR sky130_fd_sc_hd__decap_3
XTAP_TAPCELL_ROW_2_357 VGND VPWR sky130_fd_sc_hd__tapvpwrvgnd_1
XFILLER_0_108_728 VPWR VGND VPWR VGND sky130_ef_sc_hd__decap_12
XTAP_TAPCELL_ROW_143_2_666 VGND VPWR sky130_fd_sc_hd__tapvpwrvgnd_1
Xhold181 net136 VGND VGND VPWR VPWR net273 sky130_fd_sc_hd__dlygate4sd3_1
Xhold170 net423 VGND VGND VPWR VPWR net262 sky130_fd_sc_hd__dlygate4sd3_1
XFILLER_0_5_491 VPWR VGND VPWR VGND sky130_ef_sc_hd__decap_12
Xhold192 net25 VGND VGND VPWR VPWR net284 sky130_fd_sc_hd__dlygate4sd3_1
XFILLER_0_96_784 VPWR VGND VPWR VGND sky130_ef_sc_hd__decap_12
XFILLER_0_96_740 VPWR VGND VPWR VGND sky130_ef_sc_hd__decap_12
XFILLER_0_122_764 VPWR VGND VPWR VGND sky130_ef_sc_hd__decap_12
XFILLER_0_107_750 VGND VGND VPWR VPWR sky130_fd_sc_hd__decap_4
XFILLER_0_20_740 VPWR VGND VPWR VGND sky130_ef_sc_hd__decap_12
XFILLER_0_20_784 VPWR VGND VPWR VGND sky130_ef_sc_hd__decap_12
XFILLER_0_6_233 VPWR VGND VPWR VGND sky130_ef_sc_hd__decap_12
XTAP_TAPCELL_ROW_7_427 VGND VPWR sky130_fd_sc_hd__tapvpwrvgnd_1
XTAP_TAPCELL_ROW_131_2_648 VGND VPWR sky130_fd_sc_hd__tapvpwrvgnd_1
XTAP_TAPCELL_ROW_154_2_683 VGND VPWR sky130_fd_sc_hd__tapvpwrvgnd_1
XPHY_EDGE_ROW_97_2_Right_105 VGND VGND VPWR VPWR sky130_fd_sc_hd__decap_3
XFILLER_0_93_754 VGND VGND VPWR VPWR sky130_fd_sc_hd__fill_1
XFILLER_0_93_710 VPWR VGND VPWR VGND sky130_ef_sc_hd__decap_12
XFILLER_0_78_784 VPWR VGND VPWR VGND sky130_ef_sc_hd__decap_12
XFILLER_0_78_740 VPWR VGND VPWR VGND sky130_ef_sc_hd__decap_12
XFILLER_0_104_764 VPWR VGND VPWR VGND sky130_ef_sc_hd__decap_12
XFILLER_0_0_29 VPWR VGND VPWR VGND sky130_ef_sc_hd__decap_12
XFILLER_0_84_776 VGND VGND VPWR VPWR sky130_fd_sc_hd__decap_6
XFILLER_0_3_225 VGND VGND VPWR VPWR sky130_fd_sc_hd__decap_6
XFILLER_0_4_737 VPWR VGND VPWR VGND sky130_ef_sc_hd__decap_12
XTAP_TAPCELL_ROW_142_2_665 VGND VPWR sky130_fd_sc_hd__tapvpwrvgnd_1
XFILLER_0_75_754 VGND VGND VPWR VPWR sky130_fd_sc_hd__fill_1
XFILLER_0_75_710 VPWR VGND VPWR VGND sky130_ef_sc_hd__decap_12
XFILLER_0_90_713 VPWR VGND VPWR VGND sky130_ef_sc_hd__decap_12
XPHY_EDGE_ROW_16_2_Right_24 VGND VGND VPWR VPWR sky130_fd_sc_hd__decap_3
XFILLER_0_101_756 VPWR VGND VPWR VGND sky130_ef_sc_hd__decap_12
XPHY_EDGE_ROW_11_2_Left_166 VGND VGND VPWR VPWR sky130_fd_sc_hd__decap_3
XPHY_EDGE_ROW_136_2_Left_291 VGND VGND VPWR VPWR sky130_fd_sc_hd__decap_3
XPHY_EDGE_ROW_98_2_Right_106 VGND VGND VPWR VPWR sky130_fd_sc_hd__decap_3
XFILLER_0_81_746 VGND VGND VPWR VPWR sky130_fd_sc_hd__decap_8
XFILLER_0_66_776 VGND VGND VPWR VPWR sky130_fd_sc_hd__decap_6
XFILLER_0_66_710 VPWR VGND VPWR VGND sky130_ef_sc_hd__decap_12
XFILLER_0_81_768 VPWR VGND VPWR VGND sky130_ef_sc_hd__decap_12
XPHY_EDGE_ROW_62_2_Right_70 VGND VGND VPWR VPWR sky130_fd_sc_hd__decap_3
XFILLER_0_57_754 VGND VGND VPWR VPWR sky130_fd_sc_hd__fill_1
XFILLER_0_57_710 VPWR VGND VPWR VGND sky130_ef_sc_hd__decap_12
XTAP_TAPCELL_ROW_130_2_647 VGND VPWR sky130_fd_sc_hd__tapvpwrvgnd_1
XTAP_TAPCELL_ROW_145_2_669 VGND VPWR sky130_fd_sc_hd__tapvpwrvgnd_1
XFILLER_0_4_578 VGND VGND VPWR VPWR sky130_fd_sc_hd__decap_8
XFILLER_0_48_776 VGND VGND VPWR VPWR sky130_fd_sc_hd__decap_6
XFILLER_0_63_768 VPWR VGND VPWR VGND sky130_ef_sc_hd__decap_12
Xhold30 net348 VGND VGND VPWR VPWR net122 sky130_fd_sc_hd__dlygate4sd3_1
Xhold52 net292 VGND VGND VPWR VPWR net144 sky130_fd_sc_hd__dlygate4sd3_1
Xhold63 net141 VGND VGND VPWR VPWR net155 sky130_fd_sc_hd__dlygate4sd3_1
Xhold74 net173 VGND VGND VPWR VPWR net166 sky130_fd_sc_hd__dlygate4sd3_1
Xhold41 net430 VGND VGND VPWR VPWR net133 sky130_fd_sc_hd__dlygate4sd3_1
XFILLER_0_39_754 VGND VGND VPWR VPWR sky130_fd_sc_hd__fill_1
XFILLER_0_39_710 VPWR VGND VPWR VGND sky130_ef_sc_hd__decap_12
Xhold85 net181 VGND VGND VPWR VPWR net177 sky130_fd_sc_hd__dlygate4sd3_1
Xhold96 net48 VGND VGND VPWR VPWR net188 sky130_fd_sc_hd__dlygate4sd3_1
XPHY_EDGE_ROW_99_2_Right_107 VGND VGND VPWR VPWR sky130_fd_sc_hd__decap_3
XFILLER_0_147_726 VPWR VGND VPWR VGND sky130_ef_sc_hd__decap_12
XFILLER_0_45_746 VGND VGND VPWR VPWR sky130_fd_sc_hd__decap_8
XFILLER_0_8_125 VPWR VGND VPWR VGND sky130_ef_sc_hd__decap_12
XFILLER_0_8_169 VPWR VGND VPWR VGND sky130_ef_sc_hd__decap_12
XFILLER_0_45_768 VPWR VGND VPWR VGND sky130_ef_sc_hd__decap_12
XFILLER_0_138_726 VGND VGND VPWR VPWR sky130_fd_sc_hd__fill_1
XFILLER_0_36_702 VPWR VGND VPWR VGND sky130_ef_sc_hd__decap_12
Xoutput75 net75 VGND VGND VPWR VPWR wbs_dat_o[30] sky130_fd_sc_hd__buf_12
Xoutput64 net64 VGND VGND VPWR VPWR wbs_dat_o[20] sky130_fd_sc_hd__buf_12
Xoutput53 net53 VGND VGND VPWR VPWR wbs_dat_o[10] sky130_fd_sc_hd__buf_12
XTAP_TAPCELL_ROW_144_2_668 VGND VPWR sky130_fd_sc_hd__tapvpwrvgnd_1
XFILLER_0_129_726 VPWR VGND VPWR VGND sky130_ef_sc_hd__decap_12
XFILLER_0_27_746 VGND VGND VPWR VPWR sky130_fd_sc_hd__decap_8
XFILLER_0_152_784 VPWR VGND VPWR VGND sky130_ef_sc_hd__decap_12
XFILLER_0_152_740 VPWR VGND VPWR VGND sky130_ef_sc_hd__decap_12
XFILLER_0_137_792 VGND VGND VPWR VPWR sky130_fd_sc_hd__decap_8
XFILLER_0_1_301 VGND VGND VPWR VPWR sky130_fd_sc_hd__decap_3
XFILLER_0_27_768 VPWR VGND VPWR VGND sky130_ef_sc_hd__decap_12
XFILLER_0_50_782 VGND VGND VPWR VPWR sky130_fd_sc_hd__fill_1
XFILLER_0_1_356 VGND VGND VPWR VPWR sky130_fd_sc_hd__decap_4
XPHY_EDGE_ROW_25_2_Right_33 VGND VGND VPWR VPWR sky130_fd_sc_hd__decap_3
XFILLER_0_18_702 VPWR VGND VPWR VGND sky130_ef_sc_hd__decap_12
XPHY_EDGE_ROW_20_2_Left_175 VGND VGND VPWR VPWR sky130_fd_sc_hd__decap_3
Xhold363 wbs_adr_i[11] VGND VGND VPWR VPWR net455 sky130_fd_sc_hd__dlygate4sd3_1
Xhold330 net258 VGND VGND VPWR VPWR net422 sky130_fd_sc_hd__dlygate4sd3_1
Xhold341 wbs_dat_i[19] VGND VGND VPWR VPWR net433 sky130_fd_sc_hd__dlygate4sd3_1
XFILLER_0_5_673 VPWR VGND VPWR VGND sky130_ef_sc_hd__decap_12
XFILLER_0_7_93 VPWR VGND VPWR VGND sky130_ef_sc_hd__decap_12
Xhold352 wbs_dat_i[2] VGND VGND VPWR VPWR net444 sky130_fd_sc_hd__dlygate4sd3_1
XTAP_TAPCELL_ROW_5_399 VGND VPWR sky130_fd_sc_hd__tapvpwrvgnd_1
XTAP_TAPCELL_ROW_155_2_685 VGND VPWR sky130_fd_sc_hd__tapvpwrvgnd_1
XFILLER_0_134_784 VPWR VGND VPWR VGND sky130_ef_sc_hd__decap_12
XFILLER_0_134_740 VPWR VGND VPWR VGND sky130_ef_sc_hd__decap_12
XFILLER_0_119_792 VGND VGND VPWR VPWR sky130_fd_sc_hd__decap_8
XFILLER_0_2_109 VPWR VGND VPWR VGND sky130_ef_sc_hd__decap_12
XFILLER_0_32_782 VGND VGND VPWR VPWR sky130_fd_sc_hd__fill_1
XFILLER_0_70_800 VGND VGND VPWR VPWR sky130_fd_sc_hd__fill_1
XFILLER_0_6_404 VPWR VGND VPWR VGND sky130_ef_sc_hd__decap_12
XFILLER_0_6_437 VGND VGND VPWR VPWR sky130_fd_sc_hd__fill_1
XFILLER_0_140_776 VGND VGND VPWR VPWR sky130_fd_sc_hd__decap_6
XFILLER_0_2_643 VGND VGND VPWR VPWR sky130_fd_sc_hd__fill_1
XFILLER_0_15_738 VPWR VGND VPWR VGND sky130_ef_sc_hd__decap_12
XTAP_TAPCELL_ROW_2_358 VGND VPWR sky130_fd_sc_hd__tapvpwrvgnd_1
XFILLER_0_116_784 VPWR VGND VPWR VGND sky130_ef_sc_hd__decap_12
XFILLER_0_116_740 VPWR VGND VPWR VGND sky130_ef_sc_hd__decap_12
XFILLER_0_61_800 VGND VGND VPWR VPWR sky130_fd_sc_hd__fill_1
XFILLER_0_131_754 VGND VGND VPWR VPWR sky130_fd_sc_hd__fill_1
Xhold193 net150 VGND VGND VPWR VPWR net285 sky130_fd_sc_hd__dlygate4sd3_1
Xhold171 net125 VGND VGND VPWR VPWR net263 sky130_fd_sc_hd__dlygate4sd3_1
Xhold182 net429 VGND VGND VPWR VPWR net274 sky130_fd_sc_hd__dlygate4sd3_1
Xhold160 net44 VGND VGND VPWR VPWR net252 sky130_fd_sc_hd__dlygate4sd3_1
XFILLER_0_14_782 VGND VGND VPWR VPWR sky130_fd_sc_hd__fill_1
XFILLER_0_96_796 VGND VGND VPWR VPWR sky130_fd_sc_hd__decap_4
XFILLER_0_96_752 VPWR VGND VPWR VGND sky130_ef_sc_hd__decap_12
XFILLER_0_52_800 VGND VGND VPWR VPWR sky130_fd_sc_hd__fill_1
XFILLER_0_122_776 VGND VGND VPWR VPWR sky130_fd_sc_hd__decap_6
XFILLER_0_20_752 VPWR VGND VPWR VGND sky130_ef_sc_hd__decap_12
XFILLER_0_20_796 VGND VGND VPWR VPWR sky130_fd_sc_hd__decap_4
XFILLER_0_43_800 VGND VGND VPWR VPWR sky130_fd_sc_hd__fill_1
XFILLER_0_6_245 VGND VGND VPWR VPWR sky130_fd_sc_hd__decap_6
XFILLER_0_113_754 VGND VGND VPWR VPWR sky130_fd_sc_hd__fill_1
XTAP_TAPCELL_ROW_7_428 VGND VPWR sky130_fd_sc_hd__tapvpwrvgnd_1
XFILLER_0_4_83 VGND VGND VPWR VPWR sky130_fd_sc_hd__fill_1
XFILLER_0_93_722 VPWR VGND VPWR VGND sky130_ef_sc_hd__decap_12
XFILLER_0_78_796 VGND VGND VPWR VPWR sky130_fd_sc_hd__decap_4
XFILLER_0_78_752 VPWR VGND VPWR VGND sky130_ef_sc_hd__decap_12
XFILLER_0_34_800 VGND VGND VPWR VPWR sky130_fd_sc_hd__fill_1
XFILLER_0_104_776 VGND VGND VPWR VPWR sky130_fd_sc_hd__decap_6
XPHY_EDGE_ROW_108_2_Left_263 VGND VGND VPWR VPWR sky130_fd_sc_hd__decap_3
XPHY_EDGE_ROW_45_2_Left_200 VGND VGND VPWR VPWR sky130_fd_sc_hd__decap_3
XPHY_EDGE_ROW_152_2_Right_160 VGND VGND VPWR VPWR sky130_fd_sc_hd__decap_3
XFILLER_0_4_749 VGND VGND VPWR VPWR sky130_fd_sc_hd__decap_6
XFILLER_0_25_800 VGND VGND VPWR VPWR sky130_fd_sc_hd__fill_1
XFILLER_0_110_702 VPWR VGND VPWR VGND sky130_ef_sc_hd__decap_12
XPHY_EDGE_ROW_34_2_Right_42 VGND VGND VPWR VPWR sky130_fd_sc_hd__decap_3
XFILLER_0_90_725 VGND VGND VPWR VPWR sky130_fd_sc_hd__fill_2
XFILLER_0_75_722 VPWR VGND VPWR VGND sky130_ef_sc_hd__decap_12
XFILLER_0_16_800 VGND VGND VPWR VPWR sky130_fd_sc_hd__fill_1
XFILLER_0_101_702 VPWR VGND VPWR VGND sky130_ef_sc_hd__decap_12
XFILLER_0_3_771 VPWR VGND VPWR VGND sky130_ef_sc_hd__decap_12
XFILLER_0_101_768 VPWR VGND VPWR VGND sky130_ef_sc_hd__decap_12
XFILLER_0_66_722 VGND VGND VPWR VPWR sky130_fd_sc_hd__decap_4
XPHY_EDGE_ROW_153_2_Right_161 VGND VGND VPWR VPWR sky130_fd_sc_hd__decap_3
XFILLER_0_57_722 VPWR VGND VPWR VGND sky130_ef_sc_hd__decap_12
XFILLER_0_1_51 VGND VGND VPWR VPWR sky130_fd_sc_hd__decap_4
XFILLER_0_71_780 VPWR VGND VPWR VGND sky130_ef_sc_hd__decap_12
Xhold97 net185 VGND VGND VPWR VPWR net189 sky130_fd_sc_hd__buf_12
Xhold53 net153 VGND VGND VPWR VPWR net145 sky130_fd_sc_hd__dlygate4sd3_1
Xhold31 net422 VGND VGND VPWR VPWR net123 sky130_fd_sc_hd__dlygate4sd3_1
Xhold64 net306 VGND VGND VPWR VPWR net156 sky130_fd_sc_hd__dlygate4sd3_1
Xhold86 net183 VGND VGND VPWR VPWR net178 sky130_fd_sc_hd__dlygate4sd3_1
Xhold20 net236 VGND VGND VPWR VPWR net112 sky130_fd_sc_hd__dlygate4sd3_1
Xhold75 net170 VGND VGND VPWR VPWR net167 sky130_fd_sc_hd__buf_12
Xhold42 net276 VGND VGND VPWR VPWR net134 sky130_fd_sc_hd__dlygate4sd3_1
XFILLER_0_39_722 VPWR VGND VPWR VGND sky130_ef_sc_hd__decap_12
XFILLER_0_62_780 VGND VGND VPWR VPWR sky130_fd_sc_hd__decap_3
XFILLER_0_6_29 VPWR VGND VPWR VGND sky130_ef_sc_hd__decap_12
XPHY_EDGE_ROW_154_2_Right_162 VGND VGND VPWR VPWR sky130_fd_sc_hd__decap_3
XFILLER_0_147_738 VPWR VGND VPWR VGND sky130_ef_sc_hd__decap_12
XFILLER_0_8_137 VGND VGND VPWR VPWR sky130_fd_sc_hd__decap_3
XFILLER_0_60_728 VPWR VGND VPWR VGND sky130_ef_sc_hd__decap_12
XFILLER_0_53_780 VPWR VGND VPWR VGND sky130_ef_sc_hd__decap_12
XFILLER_0_4_365 VGND VGND VPWR VPWR sky130_fd_sc_hd__fill_1
XFILLER_0_4_398 VGND VGND VPWR VPWR sky130_fd_sc_hd__fill_2
XFILLER_0_146_782 VGND VGND VPWR VPWR sky130_fd_sc_hd__fill_1
XPHY_EDGE_ROW_117_2_Left_272 VGND VGND VPWR VPWR sky130_fd_sc_hd__decap_3
XFILLER_0_7_181 VPWR VGND VPWR VGND sky130_ef_sc_hd__decap_12
XFILLER_0_8_671 VGND VGND VPWR VPWR sky130_fd_sc_hd__fill_1
XFILLER_0_36_714 VPWR VGND VPWR VGND sky130_ef_sc_hd__decap_12
Xoutput76 net76 VGND VGND VPWR VPWR wbs_dat_o[31] sky130_fd_sc_hd__buf_12
Xoutput65 net65 VGND VGND VPWR VPWR wbs_dat_o[21] sky130_fd_sc_hd__buf_12
Xoutput54 net54 VGND VGND VPWR VPWR wbs_dat_o[11] sky130_fd_sc_hd__buf_12
XFILLER_0_129_738 VPWR VGND VPWR VGND sky130_ef_sc_hd__decap_12
XPHY_EDGE_ROW_43_2_Right_51 VGND VGND VPWR VPWR sky130_fd_sc_hd__decap_3
XFILLER_0_152_796 VGND VGND VPWR VPWR sky130_fd_sc_hd__decap_4
XFILLER_0_152_752 VPWR VGND VPWR VGND sky130_ef_sc_hd__decap_12
XFILLER_0_42_728 VPWR VGND VPWR VGND sky130_ef_sc_hd__decap_12
XFILLER_0_35_780 VPWR VGND VPWR VGND sky130_ef_sc_hd__decap_12
XPHY_EDGE_ROW_155_2_Right_163 VGND VGND VPWR VPWR sky130_fd_sc_hd__decap_3
XFILLER_0_128_782 VGND VGND VPWR VPWR sky130_fd_sc_hd__fill_1
XFILLER_0_5_641 VPWR VGND VPWR VGND sky130_ef_sc_hd__decap_12
XFILLER_0_18_714 VPWR VGND VPWR VGND sky130_ef_sc_hd__decap_12
XFILLER_0_41_750 VGND VGND VPWR VPWR sky130_fd_sc_hd__decap_4
Xhold353 wbs_dat_i[24] VGND VGND VPWR VPWR net445 sky130_fd_sc_hd__dlygate4sd3_1
Xhold320 net238 VGND VGND VPWR VPWR net412 sky130_fd_sc_hd__dlygate4sd3_1
Xhold331 wbs_dat_i[6] VGND VGND VPWR VPWR net423 sky130_fd_sc_hd__dlygate4sd3_1
XFILLER_0_4_195 VGND VGND VPWR VPWR sky130_fd_sc_hd__fill_1
Xhold364 wbs_adr_i[10] VGND VGND VPWR VPWR net456 sky130_fd_sc_hd__dlygate4sd3_1
Xhold342 net290 VGND VGND VPWR VPWR net434 sky130_fd_sc_hd__dlygate4sd3_1
XFILLER_0_5_685 VPWR VGND VPWR VGND sky130_ef_sc_hd__decap_12
XTAP_TAPCELL_ROW_155_2_686 VGND VPWR sky130_fd_sc_hd__tapvpwrvgnd_1
XFILLER_0_134_796 VGND VGND VPWR VPWR sky130_fd_sc_hd__decap_4
XFILLER_0_134_752 VPWR VGND VPWR VGND sky130_ef_sc_hd__decap_12
XFILLER_0_17_780 VPWR VGND VPWR VGND sky130_ef_sc_hd__decap_12
XFILLER_0_24_728 VPWR VGND VPWR VGND sky130_ef_sc_hd__decap_12
XFILLER_0_6_416 VGND VGND VPWR VPWR sky130_fd_sc_hd__decap_4
XFILLER_0_23_750 VGND VGND VPWR VPWR sky130_fd_sc_hd__decap_4
XTAP_TAPCELL_ROW_2_359 VGND VPWR sky130_fd_sc_hd__tapvpwrvgnd_1
XFILLER_0_148_800 VGND VGND VPWR VPWR sky130_fd_sc_hd__fill_1
XFILLER_0_116_796 VGND VGND VPWR VPWR sky130_fd_sc_hd__decap_4
XFILLER_0_116_752 VPWR VGND VPWR VGND sky130_ef_sc_hd__decap_12
XFILLER_0_5_482 VGND VGND VPWR VPWR sky130_fd_sc_hd__fill_1
XTAP_TAPCELL_ROW_26_2_490 VGND VPWR sky130_fd_sc_hd__tapvpwrvgnd_1
Xhold150 net413 VGND VGND VPWR VPWR net242 sky130_fd_sc_hd__dlygate4sd3_1
Xhold183 net133 VGND VGND VPWR VPWR net275 sky130_fd_sc_hd__dlygate4sd3_1
Xhold194 net437 VGND VGND VPWR VPWR net286 sky130_fd_sc_hd__dlygate4sd3_1
Xhold172 net41 VGND VGND VPWR VPWR net264 sky130_fd_sc_hd__dlygate4sd3_1
Xhold161 net104 VGND VGND VPWR VPWR net253 sky130_fd_sc_hd__dlygate4sd3_1
XFILLER_0_139_800 VGND VGND VPWR VPWR sky130_fd_sc_hd__fill_1
XFILLER_0_96_764 VPWR VGND VPWR VGND sky130_ef_sc_hd__decap_12
XFILLER_0_20_764 VPWR VGND VPWR VGND sky130_ef_sc_hd__decap_12
XPHY_EDGE_ROW_126_2_Left_281 VGND VGND VPWR VPWR sky130_fd_sc_hd__decap_3
XTAP_TAPCELL_ROW_7_429 VGND VPWR sky130_fd_sc_hd__tapvpwrvgnd_1
XTAP_TAPCELL_ROW_14_2_472 VGND VPWR sky130_fd_sc_hd__tapvpwrvgnd_1
XFILLER_0_78_764 VPWR VGND VPWR VGND sky130_ef_sc_hd__decap_12
XFILLER_0_93_756 VPWR VGND VPWR VGND sky130_ef_sc_hd__decap_12
XFILLER_0_93_734 VPWR VGND VPWR VGND sky130_ef_sc_hd__decap_12
XPHY_EDGE_ROW_52_2_Right_60 VGND VGND VPWR VPWR sky130_fd_sc_hd__decap_3
XTAP_TAPCELL_ROW_46_2_520 VGND VPWR sky130_fd_sc_hd__tapvpwrvgnd_1
XFILLER_0_3_205 VPWR VGND VPWR VGND sky130_ef_sc_hd__decap_12
XPHY_EDGE_ROW_0_Left_0 VGND VGND VPWR VPWR sky130_fd_sc_hd__decap_3
XFILLER_0_110_714 VPWR VGND VPWR VGND sky130_ef_sc_hd__decap_12
XFILLER_0_75_756 VPWR VGND VPWR VGND sky130_ef_sc_hd__decap_12
XFILLER_0_75_734 VPWR VGND VPWR VGND sky130_ef_sc_hd__decap_12
XFILLER_0_7_555 VGND VGND VPWR VPWR sky130_fd_sc_hd__decap_4
XFILLER_0_101_714 VPWR VGND VPWR VGND sky130_ef_sc_hd__decap_12
XFILLER_0_3_783 VGND VGND VPWR VPWR sky130_fd_sc_hd__fill_1
XTAP_TAPCELL_ROW_34_2_502 VGND VPWR sky130_fd_sc_hd__tapvpwrvgnd_1
XFILLER_0_72_726 VGND VGND VPWR VPWR sky130_fd_sc_hd__fill_1
XFILLER_0_57_756 VPWR VGND VPWR VGND sky130_ef_sc_hd__decap_12
XFILLER_0_57_734 VPWR VGND VPWR VGND sky130_ef_sc_hd__decap_12
XTAP_TAPCELL_ROW_13_2_471 VGND VPWR sky130_fd_sc_hd__tapvpwrvgnd_1
XTAP_TAPCELL_ROW_28_2_493 VGND VPWR sky130_fd_sc_hd__tapvpwrvgnd_1
XFILLER_0_0_753 VGND VGND VPWR VPWR sky130_fd_sc_hd__decap_3
XFILLER_0_63_726 VPWR VGND VPWR VGND sky130_ef_sc_hd__decap_12
XFILLER_0_71_792 VGND VGND VPWR VPWR sky130_fd_sc_hd__decap_8
Xhold76 net172 VGND VGND VPWR VPWR net168 sky130_fd_sc_hd__dlygate4sd3_1
Xhold43 net428 VGND VGND VPWR VPWR net135 sky130_fd_sc_hd__dlygate4sd3_1
Xhold21 net338 VGND VGND VPWR VPWR net113 sky130_fd_sc_hd__dlygate4sd3_1
Xhold98 wbs_sel_i[3] VGND VGND VPWR VPWR net190 sky130_fd_sc_hd__dlygate4sd3_1
Xhold54 net155 VGND VGND VPWR VPWR net146 sky130_fd_sc_hd__dlygate4sd3_1
Xhold10 net324 VGND VGND VPWR VPWR net102 sky130_fd_sc_hd__dlygate4sd3_1
Xhold65 net308 VGND VGND VPWR VPWR net157 sky130_fd_sc_hd__dlygate4sd3_1
Xhold87 net47 VGND VGND VPWR VPWR net179 sky130_fd_sc_hd__dlygate4sd3_1
Xhold32 net260 VGND VGND VPWR VPWR net124 sky130_fd_sc_hd__dlygate4sd3_1
XFILLER_0_149_780 VPWR VGND VPWR VGND sky130_ef_sc_hd__decap_12
XFILLER_0_54_726 VGND VGND VPWR VPWR sky130_fd_sc_hd__fill_1
XFILLER_0_39_756 VPWR VGND VPWR VGND sky130_ef_sc_hd__decap_12
XFILLER_0_39_734 VPWR VGND VPWR VGND sky130_ef_sc_hd__decap_12
XTAP_TAPCELL_ROW_16_2_475 VGND VPWR sky130_fd_sc_hd__tapvpwrvgnd_1
XPHY_EDGE_ROW_15_2_Right_23 VGND VGND VPWR VPWR sky130_fd_sc_hd__decap_3
XPHY_EDGE_ROW_135_2_Left_290 VGND VGND VPWR VPWR sky130_fd_sc_hd__decap_3
XPHY_EDGE_ROW_10_2_Left_165 VGND VGND VPWR VPWR sky130_fd_sc_hd__decap_3
XFILLER_0_53_792 VGND VGND VPWR VPWR sky130_fd_sc_hd__decap_8
XPHY_EDGE_ROW_154_2_Left_309 VGND VGND VPWR VPWR sky130_fd_sc_hd__decap_3
XTAP_TAPCELL_ROW_33_2_501 VGND VPWR sky130_fd_sc_hd__tapvpwrvgnd_1
XFILLER_0_138_728 VPWR VGND VPWR VGND sky130_ef_sc_hd__decap_12
XTAP_TAPCELL_ROW_48_2_523 VGND VPWR sky130_fd_sc_hd__tapvpwrvgnd_1
XFILLER_0_36_726 VGND VGND VPWR VPWR sky130_fd_sc_hd__fill_1
XFILLER_0_7_193 VPWR VGND VPWR VGND sky130_ef_sc_hd__decap_12
Xoutput66 net66 VGND VGND VPWR VPWR wbs_dat_o[22] sky130_fd_sc_hd__buf_12
Xoutput55 net55 VGND VGND VPWR VPWR wbs_dat_o[12] sky130_fd_sc_hd__buf_12
Xoutput77 net77 VGND VGND VPWR VPWR wbs_dat_o[3] sky130_fd_sc_hd__buf_12
XTAP_TAPCELL_ROW_12_2_470 VGND VPWR sky130_fd_sc_hd__tapvpwrvgnd_1
XTAP_TAPCELL_ROW_27_2_492 VGND VPWR sky130_fd_sc_hd__tapvpwrvgnd_1
XFILLER_0_137_750 VGND VGND VPWR VPWR sky130_fd_sc_hd__decap_4
XFILLER_0_42_718 VGND VGND VPWR VPWR sky130_fd_sc_hd__decap_8
XFILLER_0_152_764 VPWR VGND VPWR VGND sky130_ef_sc_hd__decap_12
XFILLER_0_50_784 VPWR VGND VPWR VGND sky130_ef_sc_hd__decap_12
XFILLER_0_50_740 VPWR VGND VPWR VGND sky130_ef_sc_hd__decap_12
XFILLER_0_35_792 VGND VGND VPWR VPWR sky130_fd_sc_hd__decap_8
XFILLER_0_18_726 VGND VGND VPWR VPWR sky130_fd_sc_hd__fill_1
Xhold310 net224 VGND VGND VPWR VPWR net402 sky130_fd_sc_hd__dlygate4sd3_1
XFILLER_0_4_141 VPWR VGND VPWR VGND sky130_ef_sc_hd__decap_12
XFILLER_0_5_653 VPWR VGND VPWR VGND sky130_ef_sc_hd__decap_12
XFILLER_0_5_697 VPWR VGND VPWR VGND sky130_ef_sc_hd__decap_12
XTAP_TAPCELL_ROW_36_2_505 VGND VPWR sky130_fd_sc_hd__tapvpwrvgnd_1
XTAP_TAPCELL_ROW_59_2_540 VGND VPWR sky130_fd_sc_hd__tapvpwrvgnd_1
Xhold354 wbs_dat_i[25] VGND VGND VPWR VPWR net446 sky130_fd_sc_hd__dlygate4sd3_1
Xhold321 wbs_dat_i[11] VGND VGND VPWR VPWR net413 sky130_fd_sc_hd__dlygate4sd3_1
XFILLER_0_0_391 VGND VGND VPWR VPWR sky130_fd_sc_hd__fill_1
Xhold365 wbs_adr_i[9] VGND VGND VPWR VPWR net457 sky130_fd_sc_hd__dlygate4sd3_1
Xhold343 wbs_dat_i[20] VGND VGND VPWR VPWR net435 sky130_fd_sc_hd__dlygate4sd3_1
Xhold332 net262 VGND VGND VPWR VPWR net424 sky130_fd_sc_hd__dlygate4sd3_1
XFILLER_0_7_51 VGND VGND VPWR VPWR sky130_fd_sc_hd__decap_4
XFILLER_0_119_750 VGND VGND VPWR VPWR sky130_fd_sc_hd__decap_4
XTAP_TAPCELL_ROW_15_2_474 VGND VPWR sky130_fd_sc_hd__tapvpwrvgnd_1
XFILLER_0_134_764 VPWR VGND VPWR VGND sky130_ef_sc_hd__decap_12
XFILLER_0_17_792 VGND VGND VPWR VPWR sky130_fd_sc_hd__decap_8
XFILLER_0_32_740 VPWR VGND VPWR VGND sky130_ef_sc_hd__decap_12
XFILLER_0_32_784 VPWR VGND VPWR VGND sky130_ef_sc_hd__decap_12
XTAP_TAPCELL_ROW_4_390 VGND VPWR sky130_fd_sc_hd__tapvpwrvgnd_1
XTAP_TAPCELL_ROW_32_2_500 VGND VPWR sky130_fd_sc_hd__tapvpwrvgnd_1
XTAP_TAPCELL_ROW_47_2_522 VGND VPWR sky130_fd_sc_hd__tapvpwrvgnd_1
XFILLER_0_1_111 VGND VGND VPWR VPWR sky130_fd_sc_hd__fill_1
XFILLER_0_131_756 VPWR VGND VPWR VGND sky130_ef_sc_hd__decap_12
XFILLER_0_116_764 VPWR VGND VPWR VGND sky130_ef_sc_hd__decap_12
Xhold162 net419 VGND VGND VPWR VPWR net254 sky130_fd_sc_hd__dlygate4sd3_1
Xhold151 net127 VGND VGND VPWR VPWR net243 sky130_fd_sc_hd__dlygate4sd3_1
Xhold140 net18 VGND VGND VPWR VPWR net232 sky130_fd_sc_hd__dlygate4sd3_1
XFILLER_0_14_740 VPWR VGND VPWR VGND sky130_ef_sc_hd__decap_12
XFILLER_0_14_784 VPWR VGND VPWR VGND sky130_ef_sc_hd__decap_12
XTAP_TAPCELL_ROW_18_2_478 VGND VPWR sky130_fd_sc_hd__tapvpwrvgnd_1
XTAP_TAPCELL_ROW_26_2_491 VGND VPWR sky130_fd_sc_hd__tapvpwrvgnd_1
Xhold173 net126 VGND VGND VPWR VPWR net265 sky130_fd_sc_hd__dlygate4sd3_1
Xhold195 net139 VGND VGND VPWR VPWR net287 sky130_fd_sc_hd__dlygate4sd3_1
Xhold184 net39 VGND VGND VPWR VPWR net276 sky130_fd_sc_hd__dlygate4sd3_1
XFILLER_0_96_776 VGND VGND VPWR VPWR sky130_fd_sc_hd__decap_6
XFILLER_0_20_776 VGND VGND VPWR VPWR sky130_fd_sc_hd__decap_6
XPHY_EDGE_ROW_24_2_Right_32 VGND VGND VPWR VPWR sky130_fd_sc_hd__decap_3
XFILLER_0_87_710 VPWR VGND VPWR VGND sky130_ef_sc_hd__decap_12
XTAP_TAPCELL_ROW_35_2_504 VGND VPWR sky130_fd_sc_hd__tapvpwrvgnd_1
XFILLER_0_87_754 VGND VGND VPWR VPWR sky130_fd_sc_hd__fill_1
XFILLER_0_113_756 VPWR VGND VPWR VGND sky130_ef_sc_hd__decap_12
XFILLER_0_2_475 VGND VGND VPWR VPWR sky130_fd_sc_hd__fill_1
XFILLER_0_4_41 VPWR VGND VPWR VGND sky130_ef_sc_hd__decap_12
XFILLER_0_4_85 VPWR VGND VPWR VGND sky130_ef_sc_hd__decap_12
XFILLER_0_11_754 VGND VGND VPWR VPWR sky130_fd_sc_hd__fill_1
XTAP_TAPCELL_ROW_14_2_473 VGND VPWR sky130_fd_sc_hd__tapvpwrvgnd_1
XFILLER_0_78_776 VGND VGND VPWR VPWR sky130_fd_sc_hd__decap_6
XTAP_TAPCELL_ROW_29_2_495 VGND VPWR sky130_fd_sc_hd__tapvpwrvgnd_1
XFILLER_0_93_768 VPWR VGND VPWR VGND sky130_ef_sc_hd__decap_12
XFILLER_0_93_746 VGND VGND VPWR VPWR sky130_fd_sc_hd__decap_8
XFILLER_0_6_781 VPWR VGND VPWR VGND sky130_ef_sc_hd__decap_12
XFILLER_0_69_710 VPWR VGND VPWR VGND sky130_ef_sc_hd__decap_12
XFILLER_0_84_724 VGND VGND VPWR VPWR sky130_fd_sc_hd__decap_3
XFILLER_0_69_754 VGND VGND VPWR VPWR sky130_fd_sc_hd__fill_1
XTAP_TAPCELL_ROW_46_2_521 VGND VPWR sky130_fd_sc_hd__tapvpwrvgnd_1
XTAP_TAPCELL_ROW_38_2_508 VGND VPWR sky130_fd_sc_hd__tapvpwrvgnd_1
XSRAM_0 net59 net180 net60 net180 net61 net180 net62 net180 net64 net180 net65 net180
+ net66 net180 net67 net180 net68 net189 net69 net189 net70 net189 net71 net189 net72
+ net189 net73 net189 net75 net189 net76 net189 net393 net389 net385 net89 net90 clknet_1_1__leaf_wb_clk_i
+ net219 net215 net84 net88 net87 SRAM_0/ScanOutCC net86 net83 net148 net53 net148
+ net54 net148 net55 net148 net56 net148 net57 net148 net58 net148 net148 net377 net381
+ net373 net369 net365 net361 net357 net85 net52 net171 net63 net171 net74 net171
+ net77 net171 net78 net171 net79 net171 net80 net171 net81 net171 net82 net309 net241
+ net337 net277 net233 net245 net269 net325 net253 net265 net229 net301 net261 net237
+ net249 net257 net313 net333 net293 net305 net341 net317 net273 net345 net289 net329
+ net349 net297 net285 net321 net281 net353 VGND VPWR VPWR VPWR VGND VPWR net92 net91
+ EF_SRAM_1024x32
XFILLER_0_3_217 VGND VGND VPWR VPWR sky130_fd_sc_hd__decap_6