*SPEF "ieee 1481-1999"
*DESIGN "SRAM_1024x32_wb_wrapper"
*DATE "15:55:15 Tuesday January 28, 2025"
*VENDOR "The OpenROAD Project"
*PROGRAM "OpenROAD"
*VERSION "b16bda7e82721d10566ff7e2b68f1ff0be9f9e38"
*DESIGN_FLOW "NAME_SCOPE LOCAL" "PIN_CAP NONE"
*DIVIDER /
*DELIMITER :
*BUS_DELIMITER []
*T_UNIT 1 NS
*C_UNIT 1 PF
*R_UNIT 1 OHM
*L_UNIT 1 HENRY

*NAME_MAP
*3 wb_clk_i
*4 wb_rst_i
*5 wbs_ack_o
*6 wbs_adr_i[0]
*7 wbs_adr_i[10]
*8 wbs_adr_i[11]
*9 wbs_adr_i[12]
*10 wbs_adr_i[13]
*11 wbs_adr_i[14]
*12 wbs_adr_i[15]
*13 wbs_adr_i[16]
*14 wbs_adr_i[17]
*15 wbs_adr_i[18]
*16 wbs_adr_i[19]
*17 wbs_adr_i[1]
*18 wbs_adr_i[20]
*19 wbs_adr_i[21]
*20 wbs_adr_i[22]
*21 wbs_adr_i[23]
*22 wbs_adr_i[24]
*23 wbs_adr_i[25]
*24 wbs_adr_i[26]
*25 wbs_adr_i[27]
*26 wbs_adr_i[28]
*27 wbs_adr_i[29]
*28 wbs_adr_i[2]
*29 wbs_adr_i[30]
*30 wbs_adr_i[31]
*31 wbs_adr_i[3]
*32 wbs_adr_i[4]
*33 wbs_adr_i[5]
*34 wbs_adr_i[6]
*35 wbs_adr_i[7]
*36 wbs_adr_i[8]
*37 wbs_adr_i[9]
*38 wbs_cyc_i
*39 wbs_dat_i[0]
*40 wbs_dat_i[10]
*41 wbs_dat_i[11]
*42 wbs_dat_i[12]
*43 wbs_dat_i[13]
*44 wbs_dat_i[14]
*45 wbs_dat_i[15]
*46 wbs_dat_i[16]
*47 wbs_dat_i[17]
*48 wbs_dat_i[18]
*49 wbs_dat_i[19]
*50 wbs_dat_i[1]
*51 wbs_dat_i[20]
*52 wbs_dat_i[21]
*53 wbs_dat_i[22]
*54 wbs_dat_i[23]
*55 wbs_dat_i[24]
*56 wbs_dat_i[25]
*57 wbs_dat_i[26]
*58 wbs_dat_i[27]
*59 wbs_dat_i[28]
*60 wbs_dat_i[29]
*61 wbs_dat_i[2]
*62 wbs_dat_i[30]
*63 wbs_dat_i[31]
*64 wbs_dat_i[3]
*65 wbs_dat_i[4]
*66 wbs_dat_i[5]
*67 wbs_dat_i[6]
*68 wbs_dat_i[7]
*69 wbs_dat_i[8]
*70 wbs_dat_i[9]
*71 wbs_dat_o[0]
*72 wbs_dat_o[10]
*73 wbs_dat_o[11]
*74 wbs_dat_o[12]
*75 wbs_dat_o[13]
*76 wbs_dat_o[14]
*77 wbs_dat_o[15]
*78 wbs_dat_o[16]
*79 wbs_dat_o[17]
*80 wbs_dat_o[18]
*81 wbs_dat_o[19]
*82 wbs_dat_o[1]
*83 wbs_dat_o[20]
*84 wbs_dat_o[21]
*85 wbs_dat_o[22]
*86 wbs_dat_o[23]
*87 wbs_dat_o[24]
*88 wbs_dat_o[25]
*89 wbs_dat_o[26]
*90 wbs_dat_o[27]
*91 wbs_dat_o[28]
*92 wbs_dat_o[29]
*93 wbs_dat_o[2]
*94 wbs_dat_o[30]
*95 wbs_dat_o[31]
*96 wbs_dat_o[3]
*97 wbs_dat_o[4]
*98 wbs_dat_o[5]
*99 wbs_dat_o[6]
*100 wbs_dat_o[7]
*101 wbs_dat_o[8]
*102 wbs_dat_o[9]
*103 wbs_sel_i[0]
*104 wbs_sel_i[1]
*105 wbs_sel_i[2]
*106 wbs_sel_i[3]
*107 wbs_stb_i
*108 wbs_we_i
*109 _00_
*110 _01_
*111 _02_
*112 _03_
*113 clknet_0_wb_clk_i
*114 clknet_1_0__leaf_wb_clk_i
*115 clknet_1_1__leaf_wb_clk_i
*116 net1
*117 net10
*118 net100
*119 net101
*120 net102
*121 net103
*122 net104
*123 net105
*124 net106
*125 net107
*126 net108
*127 net109
*128 net11
*129 net110
*130 net111
*131 net112
*132 net113
*133 net114
*134 net115
*135 net116
*136 net117
*137 net118
*138 net119
*139 net12
*140 net120
*141 net121
*142 net122
*143 net123
*144 net124
*145 net125
*146 net126
*147 net127
*148 net128
*149 net129
*150 net13
*151 net130
*152 net131
*153 net132
*154 net133
*155 net134
*156 net135
*157 net136
*158 net137
*159 net138
*160 net139
*161 net14
*162 net140
*163 net141
*164 net142
*165 net143
*166 net144
*167 net145
*168 net146
*169 net147
*170 net148
*171 net149
*172 net15
*173 net150
*174 net151
*175 net152
*176 net153
*177 net154
*178 net155
*179 net156
*180 net157
*181 net158
*182 net159
*183 net16
*184 net160
*185 net161
*186 net162
*187 net163
*188 net164
*189 net165
*190 net166
*191 net167
*192 net168
*193 net169
*194 net17
*195 net170
*196 net171
*197 net172
*198 net173
*199 net174
*200 net175
*201 net176
*202 net177
*203 net178
*204 net179
*205 net18
*206 net180
*207 net181
*208 net182
*209 net183
*210 net184
*211 net185
*212 net186
*213 net187
*214 net188
*215 net189
*216 net19
*217 net190
*218 net191
*219 net192
*220 net193
*221 net194
*222 net195
*223 net196
*224 net197
*225 net198
*226 net199
*227 net2
*228 net20
*229 net200
*230 net201
*231 net202
*232 net203
*233 net204
*234 net205
*235 net206
*236 net207
*237 net208
*238 net209
*239 net21
*240 net210
*241 net211
*242 net212
*243 net213
*244 net214
*245 net215
*246 net216
*247 net217
*248 net218
*249 net219
*250 net22
*251 net220
*252 net221
*253 net222
*254 net223
*255 net224
*256 net225
*257 net226
*258 net227
*259 net228
*260 net229
*261 net23
*262 net230
*263 net231
*264 net232
*265 net233
*266 net234
*267 net235
*268 net236
*269 net237
*270 net238
*271 net239
*272 net24
*273 net240
*274 net241
*275 net242
*276 net243
*277 net244
*278 net245
*279 net246
*280 net247
*281 net248
*282 net249
*283 net25
*284 net250
*285 net251
*286 net252
*287 net253
*288 net254
*289 net255
*290 net256
*291 net257
*292 net258
*293 net259
*294 net26
*295 net260
*296 net261
*297 net262
*298 net263
*299 net264
*300 net265
*301 net266
*302 net267
*303 net268
*304 net269
*305 net27
*306 net270
*307 net271
*308 net272
*309 net273
*310 net274
*311 net275
*312 net276
*313 net277
*314 net278
*315 net279
*316 net28
*317 net280
*318 net281
*319 net282
*320 net283
*321 net284
*322 net285
*323 net286
*324 net287
*325 net288
*326 net289
*327 net29
*328 net290
*329 net291
*330 net292
*331 net293
*332 net294
*333 net295
*334 net296
*335 net297
*336 net298
*337 net299
*338 net3
*339 net30
*340 net300
*341 net301
*342 net302
*343 net303
*344 net304
*345 net305
*346 net306
*347 net307
*348 net308
*349 net309
*350 net31
*351 net310
*352 net311
*353 net312
*354 net313
*355 net314
*356 net315
*357 net316
*358 net317
*359 net318
*360 net319
*361 net32
*362 net320
*363 net321
*364 net322
*365 net323
*366 net324
*367 net325
*368 net326
*369 net327
*370 net328
*371 net329
*372 net33
*373 net330
*374 net331
*375 net332
*376 net333
*377 net334
*378 net335
*379 net336
*380 net337
*381 net338
*382 net339
*383 net34
*384 net340
*385 net341
*386 net342
*387 net343
*388 net344
*389 net345
*390 net346
*391 net347
*392 net348
*393 net349
*394 net35
*395 net350
*396 net351
*397 net352
*398 net353
*399 net354
*400 net355
*401 net356
*402 net357
*403 net358
*404 net359
*405 net36
*406 net360
*407 net361
*408 net362
*409 net363
*410 net364
*411 net365
*412 net366
*413 net367
*414 net368
*415 net369
*416 net37
*417 net370
*418 net371
*419 net372
*420 net373
*421 net374
*422 net375
*423 net376
*424 net377
*425 net378
*426 net379
*427 net38
*428 net380
*429 net381
*430 net382
*431 net383
*432 net384
*433 net385
*434 net386
*435 net387
*436 net388
*437 net389
*438 net39
*439 net390
*440 net391
*441 net392
*442 net393
*443 net394
*444 net395
*445 net396
*446 net397
*447 net398
*448 net399
*449 net4
*450 net40
*451 net400
*452 net401
*453 net402
*454 net403
*455 net404
*456 net405
*457 net406
*458 net407
*459 net408
*460 net409
*461 net41
*462 net410
*463 net411
*464 net412
*465 net413
*466 net414
*467 net415
*468 net416
*469 net417
*470 net418
*471 net419
*472 net42
*473 net420
*474 net421
*475 net422
*476 net423
*477 net424
*478 net425
*479 net426
*480 net427
*481 net428
*482 net429
*483 net43
*484 net430
*485 net431
*486 net432
*487 net433
*488 net434
*489 net435
*490 net436
*491 net437
*492 net438
*493 net439
*494 net44
*495 net440
*496 net441
*497 net442
*498 net443
*499 net444
*500 net445
*501 net446
*502 net447
*503 net448
*504 net449
*505 net45
*506 net450
*507 net451
*508 net452
*509 net453
*510 net454
*511 net455
*512 net456
*513 net457
*514 net458
*515 net459
*516 net46
*517 net460
*518 net461
*519 net462
*520 net463
*521 net464
*522 net47
*523 net48
*524 net49
*525 net5
*526 net50
*527 net51
*528 net52
*529 net53
*530 net54
*531 net55
*532 net56
*533 net57
*534 net58
*535 net59
*536 net6
*537 net60
*538 net61
*539 net62
*540 net63
*541 net64
*542 net65
*543 net66
*544 net67
*545 net68
*546 net69
*547 net7
*548 net70
*549 net71
*550 net72
*551 net73
*552 net74
*553 net75
*554 net76
*555 net77
*556 net78
*557 net79
*558 net8
*559 net80
*560 net81
*561 net82
*562 net83
*563 net84
*564 net85
*565 net86
*566 net87
*567 net88
*568 net89
*569 net9
*570 net90
*571 net91
*572 net92
*573 net93
*574 net94
*575 net95
*576 net96
*577 net97
*578 net98
*579 net99
*580 ram_controller\.EN
*581 ram_controller\.R_WB
*582 ANTENNA_1
*583 ANTENNA_2
*584 FILLER_0_0_109
*585 FILLER_0_0_113
*586 FILLER_0_0_125
*587 FILLER_0_0_137
*588 FILLER_0_0_141
*589 FILLER_0_0_15
*590 FILLER_0_0_153
*591 FILLER_0_0_165
*592 FILLER_0_0_169
*593 FILLER_0_0_181
*594 FILLER_0_0_193
*595 FILLER_0_0_197
*596 FILLER_0_0_205
*597 FILLER_0_0_253
*598 FILLER_0_0_27
*599 FILLER_0_0_281
*600 FILLER_0_0_29
*601 FILLER_0_0_3
*602 FILLER_0_0_309
*603 FILLER_0_0_361
*604 FILLER_0_0_365
*605 FILLER_0_0_391
*606 FILLER_0_0_393
*607 FILLER_0_0_41
*608 FILLER_0_0_445
*609 FILLER_0_0_473
*610 FILLER_0_0_477
*611 FILLER_0_0_529
*612 FILLER_0_0_53
*613 FILLER_0_0_557
*614 FILLER_0_0_57
*615 FILLER_0_0_585
*616 FILLER_0_0_613
*617 FILLER_0_0_641
*618 FILLER_0_0_669
*619 FILLER_0_0_69
*620 FILLER_0_0_697
*621 FILLER_0_0_701
*622 FILLER_0_0_727
*623 FILLER_0_0_753
*624 FILLER_0_0_781
*625 FILLER_0_0_81
*626 FILLER_0_0_85
*627 FILLER_0_0_97
*628 FILLER_0_100_702
*629 FILLER_0_100_714
*630 FILLER_0_100_726
*631 FILLER_0_100_728
*632 FILLER_0_100_740
*633 FILLER_0_100_752
*634 FILLER_0_100_764
*635 FILLER_0_100_776
*636 FILLER_0_100_782
*637 FILLER_0_100_784
*638 FILLER_0_100_796
*639 FILLER_0_100_800
*640 FILLER_0_101_702
*641 FILLER_0_101_714
*642 FILLER_0_101_726
*643 FILLER_0_101_738
*644 FILLER_0_101_750
*645 FILLER_0_101_754
*646 FILLER_0_101_756
*647 FILLER_0_101_768
*648 FILLER_0_101_780
*649 FILLER_0_101_792
*650 FILLER_0_101_800
*651 FILLER_0_102_710
*652 FILLER_0_102_722
*653 FILLER_0_102_726
*654 FILLER_0_102_728
*655 FILLER_0_102_740
*656 FILLER_0_102_752
*657 FILLER_0_102_764
*658 FILLER_0_102_776
*659 FILLER_0_102_782
*660 FILLER_0_102_784
*661 FILLER_0_102_796
*662 FILLER_0_102_800
*663 FILLER_0_103_702
*664 FILLER_0_103_714
*665 FILLER_0_103_726
*666 FILLER_0_103_738
*667 FILLER_0_103_750
*668 FILLER_0_103_754
*669 FILLER_0_103_756
*670 FILLER_0_103_768
*671 FILLER_0_103_780
*672 FILLER_0_103_792
*673 FILLER_0_103_800
*674 FILLER_0_104_702
*675 FILLER_0_104_714
*676 FILLER_0_104_726
*677 FILLER_0_104_728
*678 FILLER_0_104_740
*679 FILLER_0_104_752
*680 FILLER_0_104_764
*681 FILLER_0_104_776
*682 FILLER_0_104_782
*683 FILLER_0_104_784
*684 FILLER_0_104_796
*685 FILLER_0_104_800
*686 FILLER_0_105_710
*687 FILLER_0_105_722
*688 FILLER_0_105_734
*689 FILLER_0_105_746
*690 FILLER_0_105_754
*691 FILLER_0_105_756
*692 FILLER_0_105_768
*693 FILLER_0_105_780
*694 FILLER_0_105_792
*695 FILLER_0_105_800
*696 FILLER_0_106_702
*697 FILLER_0_106_714
*698 FILLER_0_106_726
*699 FILLER_0_106_728
*700 FILLER_0_106_740
*701 FILLER_0_106_752
*702 FILLER_0_106_764
*703 FILLER_0_106_776
*704 FILLER_0_106_782
*705 FILLER_0_106_784
*706 FILLER_0_106_796
*707 FILLER_0_106_800
*708 FILLER_0_107_702
*709 FILLER_0_107_714
*710 FILLER_0_107_726
*711 FILLER_0_107_738
*712 FILLER_0_107_750
*713 FILLER_0_107_754
*714 FILLER_0_107_756
*715 FILLER_0_107_768
*716 FILLER_0_107_780
*717 FILLER_0_107_792
*718 FILLER_0_107_800
*719 FILLER_0_108_710
*720 FILLER_0_108_722
*721 FILLER_0_108_726
*722 FILLER_0_108_728
*723 FILLER_0_108_740
*724 FILLER_0_108_752
*725 FILLER_0_108_764
*726 FILLER_0_108_776
*727 FILLER_0_108_782
*728 FILLER_0_108_784
*729 FILLER_0_108_796
*730 FILLER_0_108_800
*731 FILLER_0_109_702
*732 FILLER_0_109_714
*733 FILLER_0_109_726
*734 FILLER_0_109_738
*735 FILLER_0_109_750
*736 FILLER_0_109_754
*737 FILLER_0_109_756
*738 FILLER_0_109_768
*739 FILLER_0_109_780
*740 FILLER_0_109_792
*741 FILLER_0_109_800
*742 FILLER_0_10_702
*743 FILLER_0_10_714
*744 FILLER_0_10_726
*745 FILLER_0_10_728
*746 FILLER_0_10_740
*747 FILLER_0_10_752
*748 FILLER_0_10_764
*749 FILLER_0_10_776
*750 FILLER_0_10_782
*751 FILLER_0_10_784
*752 FILLER_0_10_796
*753 FILLER_0_10_800
*754 FILLER_0_110_702
*755 FILLER_0_110_714
*756 FILLER_0_110_726
*757 FILLER_0_110_728
*758 FILLER_0_110_740
*759 FILLER_0_110_752
*760 FILLER_0_110_764
*761 FILLER_0_110_776
*762 FILLER_0_110_782
*763 FILLER_0_110_784
*764 FILLER_0_110_796
*765 FILLER_0_110_800
*766 FILLER_0_111_710
*767 FILLER_0_111_722
*768 FILLER_0_111_734
*769 FILLER_0_111_746
*770 FILLER_0_111_754
*771 FILLER_0_111_756
*772 FILLER_0_111_768
*773 FILLER_0_111_780
*774 FILLER_0_111_792
*775 FILLER_0_111_800
*776 FILLER_0_112_702
*777 FILLER_0_112_714
*778 FILLER_0_112_726
*779 FILLER_0_112_728
*780 FILLER_0_112_740
*781 FILLER_0_112_752
*782 FILLER_0_112_764
*783 FILLER_0_112_776
*784 FILLER_0_112_782
*785 FILLER_0_112_784
*786 FILLER_0_112_796
*787 FILLER_0_112_800
*788 FILLER_0_113_702
*789 FILLER_0_113_714
*790 FILLER_0_113_726
*791 FILLER_0_113_738
*792 FILLER_0_113_750
*793 FILLER_0_113_754
*794 FILLER_0_113_756
*795 FILLER_0_113_768
*796 FILLER_0_113_780
*797 FILLER_0_113_792
*798 FILLER_0_113_800
*799 FILLER_0_114_702
*800 FILLER_0_114_711
*801 FILLER_0_114_723
*802 FILLER_0_114_728
*803 FILLER_0_114_740
*804 FILLER_0_114_752
*805 FILLER_0_114_764
*806 FILLER_0_114_776
*807 FILLER_0_114_782
*808 FILLER_0_114_784
*809 FILLER_0_114_796
*810 FILLER_0_114_800
*811 FILLER_0_115_702
*812 FILLER_0_115_714
*813 FILLER_0_115_726
*814 FILLER_0_115_738
*815 FILLER_0_115_750
*816 FILLER_0_115_754
*817 FILLER_0_115_756
*818 FILLER_0_115_768
*819 FILLER_0_115_780
*820 FILLER_0_115_792
*821 FILLER_0_115_800
*822 FILLER_0_116_702
*823 FILLER_0_116_714
*824 FILLER_0_116_726
*825 FILLER_0_116_728
*826 FILLER_0_116_740
*827 FILLER_0_116_752
*828 FILLER_0_116_764
*829 FILLER_0_116_776
*830 FILLER_0_116_782
*831 FILLER_0_116_784
*832 FILLER_0_116_796
*833 FILLER_0_116_800
*834 FILLER_0_117_702
*835 FILLER_0_117_714
*836 FILLER_0_117_726
*837 FILLER_0_117_738
*838 FILLER_0_117_750
*839 FILLER_0_117_754
*840 FILLER_0_117_756
*841 FILLER_0_117_768
*842 FILLER_0_117_780
*843 FILLER_0_117_792
*844 FILLER_0_117_800
*845 FILLER_0_118_702
*846 FILLER_0_118_714
*847 FILLER_0_118_726
*848 FILLER_0_118_728
*849 FILLER_0_118_740
*850 FILLER_0_118_752
*851 FILLER_0_118_764
*852 FILLER_0_118_776
*853 FILLER_0_118_782
*854 FILLER_0_118_784
*855 FILLER_0_118_796
*856 FILLER_0_118_800
*857 FILLER_0_119_702
*858 FILLER_0_119_714
*859 FILLER_0_119_726
*860 FILLER_0_119_738
*861 FILLER_0_119_750
*862 FILLER_0_119_754
*863 FILLER_0_119_756
*864 FILLER_0_119_768
*865 FILLER_0_119_780
*866 FILLER_0_119_792
*867 FILLER_0_119_800
*868 FILLER_0_11_702
*869 FILLER_0_11_714
*870 FILLER_0_11_726
*871 FILLER_0_11_738
*872 FILLER_0_11_750
*873 FILLER_0_11_754
*874 FILLER_0_11_756
*875 FILLER_0_11_768
*876 FILLER_0_11_780
*877 FILLER_0_11_792
*878 FILLER_0_11_800
*879 FILLER_0_120_702
*880 FILLER_0_120_714
*881 FILLER_0_120_726
*882 FILLER_0_120_728
*883 FILLER_0_120_740
*884 FILLER_0_120_752
*885 FILLER_0_120_764
*886 FILLER_0_120_776
*887 FILLER_0_120_782
*888 FILLER_0_120_784
*889 FILLER_0_120_796
*890 FILLER_0_120_800
*891 FILLER_0_121_702
*892 FILLER_0_121_714
*893 FILLER_0_121_726
*894 FILLER_0_121_738
*895 FILLER_0_121_750
*896 FILLER_0_121_754
*897 FILLER_0_121_756
*898 FILLER_0_121_768
*899 FILLER_0_121_780
*900 FILLER_0_121_792
*901 FILLER_0_121_800
*902 FILLER_0_122_702
*903 FILLER_0_122_714
*904 FILLER_0_122_726
*905 FILLER_0_122_728
*906 FILLER_0_122_740
*907 FILLER_0_122_752
*908 FILLER_0_122_764
*909 FILLER_0_122_776
*910 FILLER_0_122_782
*911 FILLER_0_122_784
*912 FILLER_0_122_796
*913 FILLER_0_122_800
*914 FILLER_0_123_702
*915 FILLER_0_123_714
*916 FILLER_0_123_726
*917 FILLER_0_123_738
*918 FILLER_0_123_750
*919 FILLER_0_123_754
*920 FILLER_0_123_756
*921 FILLER_0_123_768
*922 FILLER_0_123_780
*923 FILLER_0_123_792
*924 FILLER_0_123_800
*925 FILLER_0_124_702
*926 FILLER_0_124_714
*927 FILLER_0_124_726
*928 FILLER_0_124_728
*929 FILLER_0_124_740
*930 FILLER_0_124_752
*931 FILLER_0_124_764
*932 FILLER_0_124_776
*933 FILLER_0_124_782
*934 FILLER_0_124_784
*935 FILLER_0_124_796
*936 FILLER_0_124_800
*937 FILLER_0_125_702
*938 FILLER_0_125_714
*939 FILLER_0_125_726
*940 FILLER_0_125_738
*941 FILLER_0_125_750
*942 FILLER_0_125_754
*943 FILLER_0_125_756
*944 FILLER_0_125_768
*945 FILLER_0_125_780
*946 FILLER_0_125_792
*947 FILLER_0_125_800
*948 FILLER_0_126_702
*949 FILLER_0_126_714
*950 FILLER_0_126_726
*951 FILLER_0_126_728
*952 FILLER_0_126_740
*953 FILLER_0_126_752
*954 FILLER_0_126_764
*955 FILLER_0_126_776
*956 FILLER_0_126_782
*957 FILLER_0_126_784
*958 FILLER_0_126_796
*959 FILLER_0_126_800
*960 FILLER_0_127_702
*961 FILLER_0_127_714
*962 FILLER_0_127_726
*963 FILLER_0_127_738
*964 FILLER_0_127_750
*965 FILLER_0_127_754
*966 FILLER_0_127_756
*967 FILLER_0_127_768
*968 FILLER_0_127_780
*969 FILLER_0_127_792
*970 FILLER_0_127_800
*971 FILLER_0_128_702
*972 FILLER_0_128_714
*973 FILLER_0_128_726
*974 FILLER_0_128_728
*975 FILLER_0_128_740
*976 FILLER_0_128_752
*977 FILLER_0_128_764
*978 FILLER_0_128_776
*979 FILLER_0_128_782
*980 FILLER_0_128_784
*981 FILLER_0_128_796
*982 FILLER_0_128_800
*983 FILLER_0_129_702
*984 FILLER_0_129_714
*985 FILLER_0_129_726
*986 FILLER_0_129_738
*987 FILLER_0_129_750
*988 FILLER_0_129_754
*989 FILLER_0_129_756
*990 FILLER_0_129_768
*991 FILLER_0_129_780
*992 FILLER_0_129_792
*993 FILLER_0_129_800
*994 FILLER_0_12_702
*995 FILLER_0_12_714
*996 FILLER_0_12_726
*997 FILLER_0_12_728
*998 FILLER_0_12_740
*999 FILLER_0_12_752
*1000 FILLER_0_12_764
*1001 FILLER_0_12_776
*1002 FILLER_0_12_782
*1003 FILLER_0_12_784
*1004 FILLER_0_12_796
*1005 FILLER_0_12_800
*1006 FILLER_0_130_702
*1007 FILLER_0_130_714
*1008 FILLER_0_130_726
*1009 FILLER_0_130_728
*1010 FILLER_0_130_740
*1011 FILLER_0_130_752
*1012 FILLER_0_130_764
*1013 FILLER_0_130_776
*1014 FILLER_0_130_782
*1015 FILLER_0_130_784
*1016 FILLER_0_130_796
*1017 FILLER_0_130_800
*1018 FILLER_0_131_702
*1019 FILLER_0_131_714
*1020 FILLER_0_131_726
*1021 FILLER_0_131_738
*1022 FILLER_0_131_750
*1023 FILLER_0_131_754
*1024 FILLER_0_131_756
*1025 FILLER_0_131_768
*1026 FILLER_0_131_780
*1027 FILLER_0_131_792
*1028 FILLER_0_131_800
*1029 FILLER_0_132_702
*1030 FILLER_0_132_714
*1031 FILLER_0_132_726
*1032 FILLER_0_132_728
*1033 FILLER_0_132_740
*1034 FILLER_0_132_752
*1035 FILLER_0_132_764
*1036 FILLER_0_132_776
*1037 FILLER_0_132_782
*1038 FILLER_0_132_784
*1039 FILLER_0_132_796
*1040 FILLER_0_132_800
*1041 FILLER_0_133_702
*1042 FILLER_0_133_714
*1043 FILLER_0_133_726
*1044 FILLER_0_133_738
*1045 FILLER_0_133_750
*1046 FILLER_0_133_754
*1047 FILLER_0_133_756
*1048 FILLER_0_133_768
*1049 FILLER_0_133_780
*1050 FILLER_0_133_792
*1051 FILLER_0_133_800
*1052 FILLER_0_134_702
*1053 FILLER_0_134_714
*1054 FILLER_0_134_726
*1055 FILLER_0_134_728
*1056 FILLER_0_134_740
*1057 FILLER_0_134_752
*1058 FILLER_0_134_764
*1059 FILLER_0_134_776
*1060 FILLER_0_134_782
*1061 FILLER_0_134_784
*1062 FILLER_0_134_796
*1063 FILLER_0_134_800
*1064 FILLER_0_135_702
*1065 FILLER_0_135_714
*1066 FILLER_0_135_726
*1067 FILLER_0_135_738
*1068 FILLER_0_135_750
*1069 FILLER_0_135_754
*1070 FILLER_0_135_756
*1071 FILLER_0_135_768
*1072 FILLER_0_135_780
*1073 FILLER_0_135_792
*1074 FILLER_0_135_800
*1075 FILLER_0_136_702
*1076 FILLER_0_136_714
*1077 FILLER_0_136_726
*1078 FILLER_0_136_728
*1079 FILLER_0_136_740
*1080 FILLER_0_136_752
*1081 FILLER_0_136_764
*1082 FILLER_0_136_776
*1083 FILLER_0_136_782
*1084 FILLER_0_136_784
*1085 FILLER_0_136_796
*1086 FILLER_0_136_800
*1087 FILLER_0_137_702
*1088 FILLER_0_137_714
*1089 FILLER_0_137_726
*1090 FILLER_0_137_738
*1091 FILLER_0_137_750
*1092 FILLER_0_137_754
*1093 FILLER_0_137_756
*1094 FILLER_0_137_768
*1095 FILLER_0_137_780
*1096 FILLER_0_137_792
*1097 FILLER_0_137_800
*1098 FILLER_0_138_702
*1099 FILLER_0_138_714
*1100 FILLER_0_138_726
*1101 FILLER_0_138_728
*1102 FILLER_0_138_740
*1103 FILLER_0_138_752
*1104 FILLER_0_138_764
*1105 FILLER_0_138_776
*1106 FILLER_0_138_782
*1107 FILLER_0_138_784
*1108 FILLER_0_138_796
*1109 FILLER_0_138_800
*1110 FILLER_0_139_702
*1111 FILLER_0_139_714
*1112 FILLER_0_139_726
*1113 FILLER_0_139_738
*1114 FILLER_0_139_750
*1115 FILLER_0_139_754
*1116 FILLER_0_139_756
*1117 FILLER_0_139_768
*1118 FILLER_0_139_780
*1119 FILLER_0_139_792
*1120 FILLER_0_139_800
*1121 FILLER_0_13_702
*1122 FILLER_0_13_714
*1123 FILLER_0_13_726
*1124 FILLER_0_13_738
*1125 FILLER_0_13_750
*1126 FILLER_0_13_754
*1127 FILLER_0_13_756
*1128 FILLER_0_13_768
*1129 FILLER_0_13_780
*1130 FILLER_0_13_792
*1131 FILLER_0_13_800
*1132 FILLER_0_140_702
*1133 FILLER_0_140_714
*1134 FILLER_0_140_726
*1135 FILLER_0_140_728
*1136 FILLER_0_140_740
*1137 FILLER_0_140_752
*1138 FILLER_0_140_764
*1139 FILLER_0_140_776
*1140 FILLER_0_140_782
*1141 FILLER_0_140_784
*1142 FILLER_0_140_796
*1143 FILLER_0_140_800
*1144 FILLER_0_141_702
*1145 FILLER_0_141_714
*1146 FILLER_0_141_726
*1147 FILLER_0_141_738
*1148 FILLER_0_141_750
*1149 FILLER_0_141_754
*1150 FILLER_0_141_756
*1151 FILLER_0_141_768
*1152 FILLER_0_141_780
*1153 FILLER_0_141_792
*1154 FILLER_0_141_800
*1155 FILLER_0_142_702
*1156 FILLER_0_142_714
*1157 FILLER_0_142_726
*1158 FILLER_0_142_728
*1159 FILLER_0_142_740
*1160 FILLER_0_142_752
*1161 FILLER_0_142_764
*1162 FILLER_0_142_776
*1163 FILLER_0_142_782
*1164 FILLER_0_142_784
*1165 FILLER_0_142_796
*1166 FILLER_0_142_800
*1167 FILLER_0_143_702
*1168 FILLER_0_143_714
*1169 FILLER_0_143_726
*1170 FILLER_0_143_738
*1171 FILLER_0_143_750
*1172 FILLER_0_143_754
*1173 FILLER_0_143_756
*1174 FILLER_0_143_768
*1175 FILLER_0_143_780
*1176 FILLER_0_143_792
*1177 FILLER_0_143_800
*1178 FILLER_0_144_702
*1179 FILLER_0_144_714
*1180 FILLER_0_144_726
*1181 FILLER_0_144_728
*1182 FILLER_0_144_740
*1183 FILLER_0_144_752
*1184 FILLER_0_144_764
*1185 FILLER_0_144_776
*1186 FILLER_0_144_782
*1187 FILLER_0_144_784
*1188 FILLER_0_144_796
*1189 FILLER_0_144_800
*1190 FILLER_0_145_702
*1191 FILLER_0_145_714
*1192 FILLER_0_145_726
*1193 FILLER_0_145_738
*1194 FILLER_0_145_750
*1195 FILLER_0_145_754
*1196 FILLER_0_145_756
*1197 FILLER_0_145_768
*1198 FILLER_0_145_780
*1199 FILLER_0_145_792
*1200 FILLER_0_145_800
*1201 FILLER_0_146_702
*1202 FILLER_0_146_714
*1203 FILLER_0_146_726
*1204 FILLER_0_146_728
*1205 FILLER_0_146_740
*1206 FILLER_0_146_752
*1207 FILLER_0_146_764
*1208 FILLER_0_146_776
*1209 FILLER_0_146_782
*1210 FILLER_0_146_784
*1211 FILLER_0_146_796
*1212 FILLER_0_146_800
*1213 FILLER_0_147_702
*1214 FILLER_0_147_714
*1215 FILLER_0_147_726
*1216 FILLER_0_147_738
*1217 FILLER_0_147_750
*1218 FILLER_0_147_754
*1219 FILLER_0_147_756
*1220 FILLER_0_147_768
*1221 FILLER_0_147_780
*1222 FILLER_0_147_792
*1223 FILLER_0_147_800
*1224 FILLER_0_148_702
*1225 FILLER_0_148_714
*1226 FILLER_0_148_726
*1227 FILLER_0_148_728
*1228 FILLER_0_148_740
*1229 FILLER_0_148_752
*1230 FILLER_0_148_764
*1231 FILLER_0_148_776
*1232 FILLER_0_148_782
*1233 FILLER_0_148_784
*1234 FILLER_0_148_796
*1235 FILLER_0_148_800
*1236 FILLER_0_149_702
*1237 FILLER_0_149_714
*1238 FILLER_0_149_726
*1239 FILLER_0_149_738
*1240 FILLER_0_149_750
*1241 FILLER_0_149_754
*1242 FILLER_0_149_756
*1243 FILLER_0_149_768
*1244 FILLER_0_149_780
*1245 FILLER_0_149_792
*1246 FILLER_0_149_800
*1247 FILLER_0_14_702
*1248 FILLER_0_14_714
*1249 FILLER_0_14_726
*1250 FILLER_0_14_728
*1251 FILLER_0_14_740
*1252 FILLER_0_14_752
*1253 FILLER_0_14_764
*1254 FILLER_0_14_776
*1255 FILLER_0_14_782
*1256 FILLER_0_14_784
*1257 FILLER_0_14_796
*1258 FILLER_0_14_800
*1259 FILLER_0_150_702
*1260 FILLER_0_150_714
*1261 FILLER_0_150_726
*1262 FILLER_0_150_728
*1263 FILLER_0_150_740
*1264 FILLER_0_150_752
*1265 FILLER_0_150_764
*1266 FILLER_0_150_776
*1267 FILLER_0_150_782
*1268 FILLER_0_150_784
*1269 FILLER_0_150_796
*1270 FILLER_0_150_800
*1271 FILLER_0_151_702
*1272 FILLER_0_151_714
*1273 FILLER_0_151_726
*1274 FILLER_0_151_738
*1275 FILLER_0_151_750
*1276 FILLER_0_151_754
*1277 FILLER_0_151_756
*1278 FILLER_0_151_768
*1279 FILLER_0_151_780
*1280 FILLER_0_151_792
*1281 FILLER_0_151_800
*1282 FILLER_0_152_702
*1283 FILLER_0_152_714
*1284 FILLER_0_152_726
*1285 FILLER_0_152_728
*1286 FILLER_0_152_740
*1287 FILLER_0_152_752
*1288 FILLER_0_152_764
*1289 FILLER_0_152_776
*1290 FILLER_0_152_782
*1291 FILLER_0_152_784
*1292 FILLER_0_152_796
*1293 FILLER_0_152_800
*1294 FILLER_0_153_702
*1295 FILLER_0_153_714
*1296 FILLER_0_153_726
*1297 FILLER_0_153_738
*1298 FILLER_0_153_750
*1299 FILLER_0_153_754
*1300 FILLER_0_153_756
*1301 FILLER_0_153_768
*1302 FILLER_0_153_780
*1303 FILLER_0_153_792
*1304 FILLER_0_153_800
*1305 FILLER_0_154_702
*1306 FILLER_0_154_714
*1307 FILLER_0_154_726
*1308 FILLER_0_154_728
*1309 FILLER_0_154_740
*1310 FILLER_0_154_752
*1311 FILLER_0_154_764
*1312 FILLER_0_154_776
*1313 FILLER_0_154_782
*1314 FILLER_0_154_784
*1315 FILLER_0_154_796
*1316 FILLER_0_154_800
*1317 FILLER_0_155_702
*1318 FILLER_0_155_714
*1319 FILLER_0_155_726
*1320 FILLER_0_155_728
*1321 FILLER_0_155_740
*1322 FILLER_0_155_752
*1323 FILLER_0_155_756
*1324 FILLER_0_155_768
*1325 FILLER_0_155_780
*1326 FILLER_0_155_784
*1327 FILLER_0_155_796
*1328 FILLER_0_155_800
*1329 FILLER_0_15_702
*1330 FILLER_0_15_714
*1331 FILLER_0_15_726
*1332 FILLER_0_15_738
*1333 FILLER_0_15_750
*1334 FILLER_0_15_754
*1335 FILLER_0_15_756
*1336 FILLER_0_15_768
*1337 FILLER_0_15_780
*1338 FILLER_0_15_792
*1339 FILLER_0_15_800
*1340 FILLER_0_16_702
*1341 FILLER_0_16_714
*1342 FILLER_0_16_726
*1343 FILLER_0_16_728
*1344 FILLER_0_16_740
*1345 FILLER_0_16_752
*1346 FILLER_0_16_764
*1347 FILLER_0_16_776
*1348 FILLER_0_16_782
*1349 FILLER_0_16_784
*1350 FILLER_0_16_796
*1351 FILLER_0_16_800
*1352 FILLER_0_17_702
*1353 FILLER_0_17_714
*1354 FILLER_0_17_726
*1355 FILLER_0_17_738
*1356 FILLER_0_17_750
*1357 FILLER_0_17_754
*1358 FILLER_0_17_756
*1359 FILLER_0_17_768
*1360 FILLER_0_17_780
*1361 FILLER_0_17_792
*1362 FILLER_0_17_800
*1363 FILLER_0_18_702
*1364 FILLER_0_18_714
*1365 FILLER_0_18_726
*1366 FILLER_0_18_728
*1367 FILLER_0_18_740
*1368 FILLER_0_18_752
*1369 FILLER_0_18_764
*1370 FILLER_0_18_776
*1371 FILLER_0_18_782
*1372 FILLER_0_18_784
*1373 FILLER_0_18_796
*1374 FILLER_0_18_800
*1375 FILLER_0_19_710
*1376 FILLER_0_19_722
*1377 FILLER_0_19_734
*1378 FILLER_0_19_746
*1379 FILLER_0_19_754
*1380 FILLER_0_19_756
*1381 FILLER_0_19_768
*1382 FILLER_0_19_780
*1383 FILLER_0_19_792
*1384 FILLER_0_19_800
*1385 FILLER_0_1_105
*1386 FILLER_0_1_111
*1387 FILLER_0_1_113
*1388 FILLER_0_1_125
*1389 FILLER_0_1_137
*1390 FILLER_0_1_149
*1391 FILLER_0_1_15
*1392 FILLER_0_1_161
*1393 FILLER_0_1_167
*1394 FILLER_0_1_169
*1395 FILLER_0_1_181
*1396 FILLER_0_1_193
*1397 FILLER_0_1_205
*1398 FILLER_0_1_213
*1399 FILLER_0_1_225
*1400 FILLER_0_1_27
*1401 FILLER_0_1_284
*1402 FILLER_0_1_3
*1403 FILLER_0_1_301
*1404 FILLER_0_1_337
*1405 FILLER_0_1_356
*1406 FILLER_0_1_39
*1407 FILLER_0_1_409
*1408 FILLER_0_1_445
*1409 FILLER_0_1_449
*1410 FILLER_0_1_502
*1411 FILLER_0_1_509
*1412 FILLER_0_1_51
*1413 FILLER_0_1_55
*1414 FILLER_0_1_556
*1415 FILLER_0_1_569
*1416 FILLER_0_1_57
*1417 FILLER_0_1_625
*1418 FILLER_0_1_629
*1419 FILLER_0_1_670
*1420 FILLER_0_1_673
*1421 FILLER_0_1_69
*1422 FILLER_0_1_723
*1423 FILLER_0_1_727
*1424 FILLER_0_1_781
*1425 FILLER_0_1_791
*1426 FILLER_0_1_799
*1427 FILLER_0_1_81
*1428 FILLER_0_1_93
*1429 FILLER_0_20_702
*1430 FILLER_0_20_714
*1431 FILLER_0_20_726
*1432 FILLER_0_20_728
*1433 FILLER_0_20_740
*1434 FILLER_0_20_752
*1435 FILLER_0_20_764
*1436 FILLER_0_20_776
*1437 FILLER_0_20_782
*1438 FILLER_0_20_784
*1439 FILLER_0_20_796
*1440 FILLER_0_20_800
*1441 FILLER_0_21_702
*1442 FILLER_0_21_714
*1443 FILLER_0_21_726
*1444 FILLER_0_21_738
*1445 FILLER_0_21_750
*1446 FILLER_0_21_754
*1447 FILLER_0_21_756
*1448 FILLER_0_21_768
*1449 FILLER_0_21_780
*1450 FILLER_0_21_792
*1451 FILLER_0_21_800
*1452 FILLER_0_22_710
*1453 FILLER_0_22_722
*1454 FILLER_0_22_726
*1455 FILLER_0_22_728
*1456 FILLER_0_22_740
*1457 FILLER_0_22_752
*1458 FILLER_0_22_764
*1459 FILLER_0_22_776
*1460 FILLER_0_22_782
*1461 FILLER_0_22_784
*1462 FILLER_0_22_796
*1463 FILLER_0_22_800
*1464 FILLER_0_23_702
*1465 FILLER_0_23_714
*1466 FILLER_0_23_726
*1467 FILLER_0_23_738
*1468 FILLER_0_23_750
*1469 FILLER_0_23_754
*1470 FILLER_0_23_756
*1471 FILLER_0_23_768
*1472 FILLER_0_23_780
*1473 FILLER_0_23_792
*1474 FILLER_0_23_800
*1475 FILLER_0_24_710
*1476 FILLER_0_24_722
*1477 FILLER_0_24_726
*1478 FILLER_0_24_728
*1479 FILLER_0_24_740
*1480 FILLER_0_24_752
*1481 FILLER_0_24_764
*1482 FILLER_0_24_776
*1483 FILLER_0_24_782
*1484 FILLER_0_24_784
*1485 FILLER_0_24_796
*1486 FILLER_0_24_800
*1487 FILLER_0_25_710
*1488 FILLER_0_25_722
*1489 FILLER_0_25_734
*1490 FILLER_0_25_746
*1491 FILLER_0_25_754
*1492 FILLER_0_25_756
*1493 FILLER_0_25_768
*1494 FILLER_0_25_780
*1495 FILLER_0_25_792
*1496 FILLER_0_25_800
*1497 FILLER_0_26_710
*1498 FILLER_0_26_722
*1499 FILLER_0_26_726
*1500 FILLER_0_26_728
*1501 FILLER_0_26_740
*1502 FILLER_0_26_752
*1503 FILLER_0_26_764
*1504 FILLER_0_26_776
*1505 FILLER_0_26_782
*1506 FILLER_0_26_784
*1507 FILLER_0_26_796
*1508 FILLER_0_26_800
*1509 FILLER_0_27_710
*1510 FILLER_0_27_722
*1511 FILLER_0_27_734
*1512 FILLER_0_27_746
*1513 FILLER_0_27_754
*1514 FILLER_0_27_756
*1515 FILLER_0_27_768
*1516 FILLER_0_27_780
*1517 FILLER_0_27_792
*1518 FILLER_0_27_800
*1519 FILLER_0_28_710
*1520 FILLER_0_28_722
*1521 FILLER_0_28_726
*1522 FILLER_0_28_728
*1523 FILLER_0_28_740
*1524 FILLER_0_28_752
*1525 FILLER_0_28_764
*1526 FILLER_0_28_776
*1527 FILLER_0_28_782
*1528 FILLER_0_28_784
*1529 FILLER_0_28_796
*1530 FILLER_0_28_800
*1531 FILLER_0_29_718
*1532 FILLER_0_29_730
*1533 FILLER_0_29_742
*1534 FILLER_0_29_754
*1535 FILLER_0_29_756
*1536 FILLER_0_29_768
*1537 FILLER_0_29_780
*1538 FILLER_0_29_792
*1539 FILLER_0_29_800
*1540 FILLER_0_2_109
*1541 FILLER_0_2_121
*1542 FILLER_0_2_133
*1543 FILLER_0_2_139
*1544 FILLER_0_2_141
*1545 FILLER_0_2_15
*1546 FILLER_0_2_153
*1547 FILLER_0_2_165
*1548 FILLER_0_2_177
*1549 FILLER_0_2_189
*1550 FILLER_0_2_195
*1551 FILLER_0_2_197
*1552 FILLER_0_2_209
*1553 FILLER_0_2_221
*1554 FILLER_0_2_227
*1555 FILLER_0_2_27
*1556 FILLER_0_2_29
*1557 FILLER_0_2_299
*1558 FILLER_0_2_3
*1559 FILLER_0_2_365
*1560 FILLER_0_2_407
*1561 FILLER_0_2_41
*1562 FILLER_0_2_418
*1563 FILLER_0_2_475
*1564 FILLER_0_2_529
*1565 FILLER_0_2_53
*1566 FILLER_0_2_587
*1567 FILLER_0_2_643
*1568 FILLER_0_2_65
*1569 FILLER_0_2_685
*1570 FILLER_0_2_697
*1571 FILLER_0_2_755
*1572 FILLER_0_2_77
*1573 FILLER_0_2_781
*1574 FILLER_0_2_793
*1575 FILLER_0_2_83
*1576 FILLER_0_2_85
*1577 FILLER_0_2_97
*1578 FILLER_0_30_710
*1579 FILLER_0_30_722
*1580 FILLER_0_30_726
*1581 FILLER_0_30_728
*1582 FILLER_0_30_740
*1583 FILLER_0_30_752
*1584 FILLER_0_30_764
*1585 FILLER_0_30_776